24
Properties=species:S:1:pos:R:3 pbc="F F F"
C        0.72428586       1.25289622       0.03093742
C        1.42871152       0.00061259      -0.06208186
C       -0.71114656       1.23129975       0.02823473
N        1.37699786       2.39495644       0.08465257
C        0.72470091      -1.25215621       0.02471311
N        2.85664327      -0.00015128      -0.19503282
C       -0.71018844      -1.23014714       0.03712106
N        1.37770428      -2.39492003       0.07133075
C       -1.44568385      -0.00005075      -0.04425662
N       -1.42849845      -2.47322344       0.09991534
N       -2.76027639      -0.00084381      -0.12479193
N       -1.43028350       2.47438210       0.07437415
O        3.46576031      -1.06042678      -0.33090089
O        3.48336993       1.05848624      -0.19024401
O       -2.61224270      -2.51935238      -0.22698079
O       -0.86087695      -3.49268979       0.48627155
O       -2.61401910       2.51488460      -0.25411390
O       -0.86477593       3.50033298       0.44651106
H        0.83872476       3.23628437       0.21552433
H        2.38314419       2.35646543       0.03509791
H        0.84174156      -3.23571641       0.21377827
H        2.38096134      -2.36045783      -0.01910394
H       -3.22234801       0.89079548      -0.20642105
H       -3.22248839      -0.89293053      -0.19904041
24
Properties=species:S:1:pos:R:3 pbc="F F F"
C        0.74516441       1.27536565       0.02965479
C        1.45452632       0.02550558      -0.06405179
C       -0.69012948       1.24846529       0.02909388
N        1.39473446       2.41889515       0.08863031
C        0.75504153      -1.23025000       0.02154333
N        2.88278929       0.03098288      -0.19334960
C       -0.68065970      -1.21420773       0.02918403
N        1.41309585      -2.36961153       0.06878012
C       -1.42045822       0.01442571      -0.04054865
N       -1.39484644      -2.46009098       0.08146449
N       -2.73565515       0.00987579      -0.10787014
N       -1.41346128       2.48940629       0.07608846
O        3.50315363      -1.02819065      -0.27847715
O        3.49982859       1.09461289      -0.23595335
O       -2.58160645      -2.50597971      -0.23548531
O       -0.82106358      -3.48356252       0.44789034
O       -2.59727722       2.52622152      -0.25256267
O       -0.85087439       3.51710460       0.44805678
H        0.85421423       3.25824974       0.22388741
H        2.40062141       2.38382123       0.02624893
H        0.87999920      -3.21337899       0.20441274
H        2.41775368      -2.32750736      -0.00465673
H       -3.20240063       0.89935884      -0.18534298
H       -3.19532000      -0.88354618      -0.18114320
24
Properties=species:S:1:pos:R:3 pbc="F F F"
C        0.73557414       1.23611570       0.27644262
C        1.42351710      -0.00636363      -0.02425533
C       -0.68074261       1.24920045       0.02210135
N        1.40221646       2.21529734       0.72536858
C        0.72761254      -1.26930636       0.10724144
N        2.68009031      -0.06105839      -0.37439218
C       -0.68351562      -1.22569946       0.09486998
N        1.42154685      -2.38294859       0.22622321
C       -1.38770497       0.03307894      -0.11976289
N       -1.42156725      -2.44623848       0.23603096
N       -2.66726014       0.01238533      -0.39619413
N       -1.36388657       2.49723023      -0.03504190
O        3.42025799      -1.00381154      -0.62306453
O        3.47399364       0.86313111      -0.43175789
O       -2.62115305      -2.48035517      -0.02178028
O       -0.84257959      -3.45825052       0.62193750
O       -2.50720875       2.54932699      -0.48341422
O       -0.81037122       3.51851417       0.35501855
H        0.83497748       3.02453275       0.91283480
H        3.21845947       2.05537580      -0.71522188
H        0.91400410      -3.24079876       0.36519331
H        2.41833876      -2.33082270       0.09145865
H       -3.11524230       0.90361505      -0.53556777
H       -3.13820516      -0.87415615      -0.42316033
24
Properties=species:S:1:pos:R:3 pbc="F F F"
C        0.73758194       1.22625384       0.47462016
C        1.42122689      -0.02372264       0.00184882
C       -0.66758211       1.25220229       0.01866368
N        1.38723247       2.03784157       1.20560660
C        0.70871966      -1.29714894       0.17274963
N        2.62577477       0.01070851      -0.52011752
C       -0.68602518      -1.23327808       0.14523373
N        1.43080408      -2.39008144       0.34678013
C       -1.36571240       0.04877563      -0.18158244
N       -1.44308369      -2.43353643       0.35478745
N       -2.60918809       0.01265386      -0.61729910
N       -1.32264440       2.50265146      -0.11993435
O        3.34727080      -0.93528256      -0.88041510
O        3.16641134       1.24907269      -0.71324851
O       -2.65253541      -2.45305507       0.14173401
O       -0.85964734      -3.43783323       0.75608498
O       -2.43381812       2.56664643      -0.66014496
O       -0.76416720       3.51366197       0.28759798
H        0.80415603       2.83515537       1.43416846
H        4.00634677       1.03145618      -1.14717155
H        0.94218009      -3.26015216       0.48888069
H        2.41994499      -2.32616015       0.16379187
H       -3.04429310       0.90436235      -0.80488903
H       -3.08950267      -0.87070280      -0.60808738
24
Properties=species:S:1:pos:R:3 pbc="F F F"
C        0.69128370       1.23948951       0.22456948
C        1.30406729      -0.04284914      -0.00993980
C       -0.71526346       1.25424750       0.00258918
N        1.42766956       2.17261995       0.62928487
C        0.69036765      -1.31773429       0.04423021
N        2.54099708      -0.03075417      -0.42358386
C       -0.68101310      -1.24364737       0.06051646
N        1.43811523      -2.39120331       0.08372428
C       -1.35842165       0.03853191      -0.08834918
N       -1.43092764      -2.44032611       0.16756154
N       -2.64178481       0.01291461      -0.28992377
N       -1.35168481       2.49887427      -0.05774036
O        3.33123058      -0.57447987      -1.18660173
O        3.39441182       0.79470851       0.22122262
O       -2.64815324      -2.49515618       0.06125599
O       -0.82767860      -3.48083098       0.37566891
O       -2.54373886       2.56347909      -0.32112737
O       -0.82348165       3.57895108       0.14023922
H        0.87538281       2.99217211       0.75466948
H        4.22428948       0.70091863      -0.26919677
H        0.94538148      -3.26387349       0.15445459
H        2.42823839      -2.33002985      -0.06566187
H       -3.08994141       0.90825161      -0.37681731
H       -3.12747109      -0.85993101      -0.28876521
24
Properties=species:S:1:pos:R:3 pbc="F F F"
C        0.67502772       1.27547170      -0.01482041
C        1.27127833      -0.04231870      -0.03907258
C       -0.74805472       1.25998895      -0.00935184
N        1.46380972       2.25338238       0.02872580
C        0.68498586      -1.32860982      -0.08578782
N        2.62398108       0.04943007      -0.23236290
C       -0.67891504      -1.24856646      -0.02494518
N        1.44570496      -2.38247489      -0.17971361
C       -1.36058214       0.02922030       0.00291785
N       -1.41843143      -2.44950993      -0.01828948
N       -2.65665943       0.01141530       0.03911162
N       -1.38891394       2.50666361       0.00430589
O        3.35195930       0.08469693      -1.20240325
O        3.38886745       0.08933393       0.90952323
O       -2.63961129      -2.52269066      -0.02091519
O       -0.80448533      -3.50452711      -0.00626096
O       -2.61011078       2.55874727       0.02571652
O       -0.88017200       3.61661639      -0.00521513
H        0.93660758       3.10091259       0.05730760
H        4.26673607       0.21194969       0.50833848
H        0.95097040      -3.25704272      -0.17893842
H        2.43694118      -2.31866862      -0.29645019
H       -3.11802598       0.90373203       0.05178333
H       -3.14856058      -0.85740733       0.03293856
24
Properties=species:S:1:pos:R:3 pbc="F F F"
C        0.66666540       1.27934490      -0.26058086
C        1.26134044      -0.00971578      -0.08973441
C       -0.73202260       1.26568695      -0.01939681
N        1.41031003       2.23591810      -0.58994228
C        0.70325252      -1.28659421      -0.21811719
N        2.55088363       0.07892025       0.13343431
C       -0.66531136      -1.23019616      -0.11307366
N        1.44974848      -2.33589030      -0.44837302
C       -1.34688587       0.03822003       0.09642510
N       -1.40684530      -2.43076091      -0.20803874
N       -2.61647256      -0.00732672       0.37402506
N       -1.38462873       2.50100235       0.06992631
O        3.39930868       0.77962310      -0.36300397
O        3.31536449      -0.60109351       1.00143432
O       -2.62324004      -2.49389613      -0.10322238
O       -0.79769622      -3.47282722      -0.39899693
O       -2.56599276       2.54726949       0.38000680
O       -0.88194980       3.58861374      -0.15037740
H        0.86115871       3.06412694      -0.66694249
H        4.20714742      -0.24068998       0.92018024
H        0.95758651      -3.20979628      -0.51912125
H        2.44386973      -2.26937630      -0.53066720
H       -3.07124934       0.88117779       0.48895367
H       -3.09770778      -0.88262321       0.36037174
24
Properties=species:S:1:pos:R:3 pbc="F F F"
C        0.69623616       1.30055440      -0.51306806
C        1.41258223       0.05031930      -0.11876635
C       -0.69703741       1.27547522      -0.03346054
N        1.35046181       2.15516156      -1.18713569
C        0.73995967      -1.22678027      -0.34746008
N        2.58250200       0.15754512       0.47664240
C       -0.65262952      -1.20477245      -0.19998546
N        1.45502444      -2.27751212      -0.71424117
C       -1.34176596       0.04766791       0.19242510
N       -1.39440421      -2.41413660      -0.39834664
N       -2.55701984      -0.02871361       0.70481975
N       -1.38813966       2.50644034       0.13665871
O        3.19956434       1.15721344       0.78518433
O        3.21711555      -1.04261781       0.83146798
O       -2.60183529      -2.44929737      -0.18241704
O       -0.80028701      -3.41942430      -0.78975276
O       -2.47553295       2.53488402       0.72360906
O       -0.87854916       3.53117420      -0.29616575
H        0.77407883       2.96946504      -1.37466614
H        4.00170692      -0.66712798       1.25832679
H        0.96753313      -3.14941118      -0.85893248
H        2.45188573      -2.20245080      -0.75815711
H       -3.00494581       0.84961560       0.92351129
H       -3.02762189      -0.91602622       0.68310877
24
Properties=species:S:1:pos:R:3 pbc="F F F"
C        0.68530026       1.27490847      -0.26190862
C        1.38493779       0.01752921      -0.07526763
C       -0.71622235       1.26545101      -0.01609705
N        1.37204777       2.21118387      -0.59573001
C        0.72375744      -1.24450974      -0.19529654
N        2.60950429       0.16057147       0.21996459
C       -0.65450245      -1.22302177      -0.11873232
N        1.41560948      -2.32427247      -0.38675279
C       -1.33701321       0.03846365       0.08941437
N       -1.39768958      -2.42736099      -0.22446908
N       -2.59254342      -0.01680133       0.35068402
N       -1.38883068       2.49692709       0.08223442
O        3.29314510       1.13686107       0.37776393
O        3.28913669      -1.00540302       0.38834394
O       -2.61104898      -2.48543311      -0.11714741
O       -0.79870286      -3.46061477      -0.42677572
O       -2.54229146       2.54062534       0.37997455
O       -0.88572196       3.56723099      -0.12566404
H        0.83069131       3.04266878      -0.68260831
H        4.12806115      -0.64546269       0.60207095
H        0.93974535      -3.20225757      -0.46363711
H        2.40980125      -2.35500864      -0.41191507
H       -3.04717890       0.86866100       0.46928506
H       -3.07162248      -0.89296168       0.33360653
24
Properties=species:S:1:pos:R:3 pbc="F F F"
C        0.67436436       1.24926253      -0.01074918
C        1.35729336      -0.01526088      -0.03176892
C       -0.73540729       1.25542681       0.00126644
N        1.39363374       2.26720619      -0.00432433
C        0.70755520      -1.26223922      -0.04313299
N        2.63650658       0.16359782      -0.03671322
C       -0.65637538      -1.24127108      -0.03747918
N        1.37619452      -2.37103282      -0.05926441
C       -1.33226045       0.02925939      -0.01359636
N       -1.40097495      -2.44058537      -0.05059153
N       -2.62806700      -0.00488904      -0.00345171
N       -1.38952170       2.48741383       0.02781014
O        3.38672586       1.11650871      -0.02965647
O        3.36115783      -0.96818822      -0.05478011
O       -2.62026267      -2.52156884      -0.05187779
O       -0.79711870      -3.50180525      -0.06379868
O       -2.60904998       2.54636666       0.03634003
O       -0.89289476       3.60328779       0.04483768
H        0.88730380       3.11587252       0.00944952
H        4.25441538      -0.62379740      -0.05418490
H        0.91195757      -3.25510395      -0.06834175
H        2.36771677      -2.50756649      -0.06567304
H       -3.08941198       0.88770640       0.01505883
H       -3.11562307      -0.86989713      -0.01589571
24
Properties=species:S:1:pos:R:3 pbc="F F F"
C        0.69736593       1.24860250       0.24048518
C        1.38708681      -0.00738618       0.01199512
C       -0.70808612       1.25276107       0.01824710
N        1.39428615       2.17292310       0.58578347
C        0.71997152      -1.26817198       0.10900880
N        2.60891578       0.13666605      -0.29338106
C       -0.65870636      -1.23792458       0.04425448
N        1.40804806      -2.35569345       0.26848316
C       -1.33715636       0.03279350      -0.11622882
N       -1.40667625      -2.44151748       0.12361613
N       -2.59714350      -0.00796649      -0.35840730
N       -1.37646751       2.48975824      -0.02685846
O        3.29585616       1.11344481      -0.43572339
O        3.28070614      -1.02785275      -0.49769900
O       -2.62016935      -2.49230527       0.01482221
O       -0.81148674      -3.48178908       0.29986525
O       -2.53343252       2.54870298      -0.30824815
O       -0.86626390       3.54989492       0.21282367
H        0.85905837       3.00514383       0.70085393
H        4.11929785      -0.66607935      -0.70988479
H        0.92874198      -3.23301223       0.32762132
H        2.40277668      -2.39205523       0.28295739
H       -3.04943042       0.88287524      -0.44021714
H       -3.07974886      -0.88236085      -0.36656942
24
Properties=species:S:1:pos:R:3 pbc="F F F"
C        0.72036750       1.24794247       0.49171955
C        1.41688027       0.00048852       0.05575915
C       -0.68076494       1.25009534       0.03522776
N        1.39493856       2.07864000       1.17589127
C        0.73238785      -1.27410473       0.26115058
N        2.58132499       0.10973428      -0.55004889
C       -0.66103734      -1.23457808       0.12598815
N        1.43990161      -2.34035407       0.59623073
C       -1.34205227       0.03632761      -0.21886129
N       -1.41237755      -2.44244960       0.29782380
N       -2.56622001      -0.01104393      -0.71336289
N       -1.36341332       2.49210266      -0.08152707
O        3.20498646       1.11038092      -0.84179032
O        3.20025445      -1.08751727      -0.94061790
O       -2.62007604      -2.46304170       0.08152221
O       -0.82585478      -3.46177291       0.66352918
O       -2.45781507       2.55103930      -0.65283634
O       -0.83963305       3.49650206       0.38080966
H        0.83081294       2.89441513       1.39225834
H        3.98418031      -0.70836131      -1.36558469
H        0.94552638      -3.21092051       0.72358438
H        2.43783660      -2.27654398       0.63158783
H       -3.00944886       0.87804409      -0.89549310
H       -3.04387464      -0.89482458      -0.71724314
24
Properties=species:S:1:pos:R:3 pbc="F F F"
C        0.68434625       1.18334662       0.37331969
C        1.35881089      -0.04008732       0.18025468
C       -0.69402917       1.22274251       0.04161641
N        1.49892411       2.06746424       0.87301057
C        0.71031464      -1.29163523       0.23801671
N        2.64981117       0.15162927      -0.05712181
C       -0.69350014      -1.25276049       0.10192463
N        1.45011672      -2.37107298       0.43250226
C       -1.39121829       0.00823749      -0.12055259
N       -1.42682909      -2.47766003       0.15546859
N       -2.66678251       0.00683196      -0.45224100
N       -1.32112148       2.47987051      -0.10702262
O        3.07140554       1.34092902      -0.07333814
O        3.19424600      -0.56312859      -1.05472104
O       -2.64335354      -2.49948154       0.01447333
O       -0.81061151      -3.51940323       0.34913682
O       -2.49354067       2.58953555      -0.42956777
O       -0.66885354       3.48697943       0.07804280
H        1.21084633       3.00377972       0.63494633
H        4.10889620      -0.29914192      -1.18166079
H        0.98867318      -3.26349668       0.45946548
H        2.44450690      -2.28132193       0.50617595
H       -3.10391965       0.90702217      -0.56561837
H       -3.15745589      -0.86774861      -0.46721094
24
Properties=species:S:1:pos:R:3 pbc="F F F"
C        0.68429512       1.14153268       0.26146952
C        1.34225471      -0.05977085       0.29550685
C       -0.70053276       1.20032940       0.04944953
N        1.57728588       2.13584618       0.50853312
C        0.69768111      -1.30469056       0.21447382
N        2.75300623       0.17006437       0.32462588
C       -0.72657210      -1.27006942       0.07771215
N        1.45873449      -2.39766042       0.26882713
C       -1.44310795      -0.01827579      -0.02436542
N       -1.43868052      -2.51423177       0.01509795
N       -2.75835731       0.02428957      -0.19177313
N       -1.27973908       2.48976626      -0.13223894
O        2.85787090       1.49868034       0.69838382
O        3.18555658       0.07792256      -1.04443230
O       -2.66435092      -2.52841356      -0.05326808
O       -0.80041582      -3.56396980       0.03654017
O       -2.49797790       2.62726054      -0.20053838
O       -0.51288468       3.44280994      -0.22478850
H        1.61560063       2.94286643      -0.09771469
H        4.14750234       0.09071499      -0.98003577
H        1.03485280      -3.30408272       0.19769496
H        2.44862372      -2.27896860       0.37884920
H       -3.18888876       0.93344603      -0.23765963
H       -3.26215277      -0.84508655      -0.21738709
24
Properties=species:S:1:pos:R:3 pbc="F F F"
C        0.67500251       1.15366755       0.23013282
C        1.34199810      -0.04971138       0.26126950
C       -0.71191914       1.20864656       0.04289726
N        1.57427554       2.13445300       0.44799337
C        0.69522227      -1.29972637       0.19005924
N        2.73613318       0.17707102       0.28800790
C       -0.72792075      -1.26707468       0.06836109
N        1.46122271      -2.38651573       0.23903815
C       -1.44878208      -0.01454117      -0.02230159
N       -1.43663612      -2.51293002       0.01283954
N       -2.76345295       0.02263409      -0.17054874
N       -1.29624504       2.49597957      -0.11734940
O        2.85260572       1.50486160       0.61485171
O        4.03461957       0.06712174      -0.91407696
O       -2.66223738      -2.53120426      -0.05001177
O       -0.79414050      -3.56055903       0.03403498
O       -2.51505158       2.62962124      -0.17816624
O       -0.53166195       3.45247162      -0.19825824
H        1.60071959       2.97141226      -0.08494588
H        4.97653217       0.15378040      -0.85747011
H        1.03910278      -3.29492415       0.17692104
H        2.45183798      -2.26430577       0.33653263
H       -3.19830711       0.93019367      -0.21117123
H       -3.26414157      -0.84893898      -0.19391559
24
Properties=species:S:1:pos:R:3 pbc="F F F"
C        0.66570990       1.16580242       0.19879611
C        1.34174148      -0.03965191       0.22703215
C       -0.72330553       1.21696372       0.03634499
N        1.57126519       2.13305982       0.38745361
C        0.69276342      -1.29476219       0.16564465
N        2.71926013       0.18407767       0.25138993
C       -0.72926940      -1.26407993       0.05901003
N        1.46371093      -2.37537105       0.20924917
C       -1.45445621      -0.01080656      -0.02023776
N       -1.43459171      -2.51162827       0.01058113
N       -2.76854860       0.02097862      -0.14932435
N       -1.31275101       2.50219287      -0.10245987
O        2.84734054       1.51104286       0.53131961
O        4.88368256       0.05632092      -0.78372162
O       -2.66012384      -2.53399497      -0.04675546
O       -0.78786517      -3.55714827       0.03152978
O       -2.53212526       2.63198193      -0.15579411
O       -0.55043921       3.46213331      -0.17172798
H        1.58583855       2.99995810      -0.07217707
H        5.80556199       0.21684582      -0.73490446
H        1.04335275      -3.28576558       0.15614711
H        2.45505224      -2.24964293       0.29421607
H       -3.20772546       0.92694130      -0.18468283
H       -3.26613036      -0.85279142      -0.17044408
24
Properties=species:S:1:pos:R:3 pbc="F F F"
C        0.65641729       1.17793730       0.16745941
C        1.34148487      -0.02959243       0.19279481
C       -0.73469191       1.22528089       0.02979272
N        1.56825485       2.13166664       0.32691386
C        0.69030458      -1.28979800       0.14123007
N        2.70238708       0.19108432       0.21477196
C       -0.73061805      -1.26108519       0.04965896
N        1.46619915      -2.36422636       0.17946019
C       -1.46013034      -0.00707195      -0.01817392
N       -1.43254731      -2.51032652       0.00832272
N       -2.77364425       0.01932314      -0.12809996
N       -1.32925697       2.50840618      -0.08757033
O        2.84207537       1.51722413       0.44778750
O        5.73274555       0.04552010      -0.65336628
O       -2.65801030      -2.53678568      -0.04349915
O       -0.78158985      -3.55373750       0.02902459
O       -2.54919894       2.63434263      -0.13342198
O       -0.56921648       3.47179500      -0.14519772
H        1.57095751       3.02850393      -0.05940826
H        6.63459182       0.27991124      -0.61233880
H        1.04760272      -3.27660700       0.13537319
H        2.45826650      -2.23498010       0.25189951
H       -3.21714380       0.92368894      -0.15819443
H       -3.26811915      -0.85664386      -0.14697258
24
Properties=species:S:1:pos:R:3 pbc="F F F"
C        0.64712467       1.19007217       0.13612271
C        1.34122826      -0.01953296       0.15855746
C       -0.74607830       1.23359805       0.02324045
N        1.56524451       2.13027346       0.26637411
C        0.68784574      -1.28483382       0.11681549
N        2.68551403       0.19809098       0.17815399
C       -0.73196670      -1.25809044       0.04030790
N        1.46868737      -2.35308168       0.14967121
C       -1.46580447      -0.00333734      -0.01611009
N       -1.43050290      -2.50902477       0.00606432
N       -2.77873989       0.01766767      -0.10687558
N       -1.34576294       2.51461948      -0.07268079
O        2.83681019       1.52340539       0.36425540
O        6.58180854       0.03471928      -0.52301094
O       -2.65589677      -2.53957639      -0.04024284
O       -0.77531453      -3.55032673       0.02651940
O       -2.56627262       2.63670333      -0.11104984
O       -0.58799375       3.48145669      -0.11866746
H        1.55607647       3.05704976      -0.04663944
H        7.46362165       0.34297666      -0.48977314
H        1.05185269      -3.26744843       0.11459927
H        2.46148076      -2.22031727       0.20958295
H       -3.22656215       0.92043657      -0.13170602
H       -3.27010794      -0.86049630      -0.12350108
24
Properties=species:S:1:pos:R:3 pbc="F F F"
C        0.63790895       1.20239938       0.10477867
C        1.34099207      -0.00942359       0.12430198
C       -0.75740651       1.24196955       0.01668787
N        1.56208136       2.13353011       0.20412641
C        0.68538583      -1.27986055       0.09238686
N        2.66886485       0.20544746       0.14152910
C       -0.73329961      -1.25507568       0.03095250
N        1.47127761      -2.34193239       0.11986657
C       -1.47152716       0.00040923      -0.01404854
N       -1.42845312      -2.50770932       0.00380473
N       -2.78376574       0.01602385      -0.08563555
N       -1.36220688       2.52079172      -0.05777793
O        2.83153471       1.52927660       0.28051276
O        7.43619623       0.02591533      -0.39225820
O       -2.65376839      -2.54234765      -0.03698507
O       -0.76901617      -3.54689538       0.02401354
O       -2.58331733       2.63904747      -0.08866498
O       -0.60673342       3.49102649      -0.09211212
H        1.54136729       3.08054442      -0.03218331
H        8.28726162       0.40412654      -0.36732986
H        1.05614964      -3.25820604       0.09381520
H        2.46468339      -2.20559286       0.16721603
H       -3.23593690       0.91714835      -0.10520191
H       -3.27205620      -0.86434873      -0.10001549
24
Properties=species:S:1:pos:R:3 pbc="F F F"
C        0.62869323       1.21472659       0.07343462
C        1.34075588       0.00068579       0.09004650
C       -0.76873471       1.25034105       0.01013530
N        1.55891821       2.13678675       0.14187871
C        0.68292593      -1.27488729       0.06795823
N        2.65221566       0.21280395       0.10490421
C       -0.73463252      -1.25206092       0.02159709
N        1.47386785      -2.33078311       0.09006193
C       -1.47724985       0.00415581      -0.01198699
N       -1.42640334      -2.50639387       0.00154514
N       -2.78879159       0.01438004      -0.06439553
N       -1.37865083       2.52696395      -0.04287506
O        2.82625923       1.53514782       0.19677012
O        8.29058392       0.01711137      -0.26150547
O       -2.65164001      -2.54511892      -0.03372730
O       -0.76271781      -3.54346403       0.02150769
O       -2.60036204       2.64139161      -0.06628013
O       -0.62547309       3.50059630      -0.06555678
H        1.52665810       3.10403907      -0.01772718
H        9.11090158       0.46527642      -0.24488657
H        1.06044658      -3.24896366       0.07303113
H        2.46788602      -2.19086846       0.12484911
H       -3.24531165       0.91386013      -0.07869780
H       -3.27400445      -0.86820116      -0.07652991
24
Properties=species:S:1:pos:R:3 pbc="F F F"
C        0.61947750       1.22705380       0.04209058
C        1.34051969       0.01079516       0.05579102
C       -0.78006292       1.25871255       0.00358273
N        1.55575506       2.14004340       0.07963101
C        0.68046602      -1.26991402       0.04352960
N        2.63556648       0.22016043       0.06827932
C       -0.73596543      -1.24904617       0.01224169
N        1.47645810      -2.31963382       0.06025729
C       -1.48297254       0.00790238      -0.00992543
N       -1.42435355      -2.50507842      -0.00071445
N       -2.79381744       0.01273622      -0.04315551
N       -1.39509478       2.53313618      -0.02797219
O        2.82098375       1.54101904       0.11302747
O        9.14497160       0.00830742      -0.13075273
O       -2.64951163      -2.54789019      -0.03046953
O       -0.75641944      -3.54003268       0.01900183
O       -2.61740675       2.64373576      -0.04389527
O       -0.64421276       3.51016610      -0.03900144
H        1.51194892       3.12753372      -0.00327105
H        9.93454155       0.52642630      -0.12244329
H        1.06474353      -3.23972127       0.05224707
H        2.47108865      -2.17614405       0.08248219
H       -3.25468640       0.91057192      -0.05219370
H       -3.27595271      -0.87205359      -0.05304433
24
Properties=species:S:1:pos:R:3 pbc="F F F"
C        0.61026178       1.23938101       0.01074653
C        1.34028351       0.02090453       0.02153554
C       -0.79139112       1.26708405      -0.00296985
N        1.55259191       2.14330005       0.01738330
C        0.67800611      -1.26494075       0.01910096
N        2.61891729       0.22751691       0.03165443
C       -0.73729834      -1.24603141       0.00288629
N        1.47904834      -2.30848454       0.03045264
C       -1.48869522       0.01164895      -0.00786388
N       -1.42230377      -2.50376297      -0.00297404
N       -2.79884328       0.01109241      -0.02191549
N       -1.41153873       2.53930842      -0.01306933
O        2.81570827       1.54689025       0.02928483
O        9.99935929      -0.00049654       0.00000000
O       -2.64738325      -2.55066145      -0.02721176
O       -0.75012108      -3.53660133       0.01649598
O       -2.63445146       2.64607990      -0.02151041
O       -0.66295244       3.51973591      -0.01244610
H        1.49723973       3.15102837       0.01118508
H       10.75818151       0.58757618       0.00000000
H        1.06904047      -3.23047889       0.03146300
H        2.47429128      -2.16141965       0.04011527
H       -3.26406114       0.90728370      -0.02568959
H       -3.27790097      -0.87590602      -0.02955874
24
Properties=species:S:1:pos:R:3 pbc="F F F"
C        0.59105247       1.22039148       0.00861338
C        1.31375292      -0.00287165       0.01972056
C       -0.79636324       1.26676203      -0.00383579
N        1.49595924       2.10693297       0.01429831
C        0.67009230      -1.27911794       0.01889371
N        2.60378230       0.12720493       0.02914541
C       -0.73885422      -1.24708894       0.00255321
N        1.47721056      -2.31722138       0.03111735
C       -1.48766927       0.01430718      -0.00820916
N       -1.42438498      -2.50419973      -0.00309534
N       -2.79790005       0.01295124      -0.02090511
N       -1.41314690       2.53986720      -0.01284433
O        2.71715829       1.40752097       0.02869460
O        9.99933229      -0.00018723       0.00000023
O       -2.64874949      -2.54845575      -0.03359402
O       -0.75398103      -3.53715065       0.02256469
O       -2.63719093       2.64033148      -0.02114436
O       -0.67004824       3.52160918      -0.01148285
H        2.54276617       3.23822726       0.00641907
H       10.75832558       0.58740412       0.00000016
H        1.06858898      -3.23856111       0.03406862
H        2.47260701      -2.17420326       0.04030100
H       -3.26153626       0.91015164      -0.02452614
H       -3.27550027      -0.87421774      -0.02994313
24
Properties=species:S:1:pos:R:3 pbc="F F F"
C        0.59012511       1.22068316       0.00638178
C        1.28837572      -0.02237496       0.01773959
C       -0.79852276       1.26709816      -0.00475492
N        1.50108777       2.14673283       0.01003829
C        0.66218347      -1.29309509       0.01866780
N        2.58713348       0.04492151       0.02634370
C       -0.74022482      -1.24778757       0.00219117
N        1.47524890      -2.32613744       0.03184064
C       -1.48595217       0.01759958      -0.00858169
N       -1.42655422      -2.50451805      -0.00322724
N       -2.79664599       0.01505337      -0.01980028
N       -1.41444939       2.54035142      -0.01259406
O        2.60364149       1.34355077       0.02672160
O        9.99930223       0.00014449       0.00000051
O       -2.65016533      -2.54599059      -0.04055962
O       -0.75813138      -3.53763828       0.02918893
O       -2.63994896       2.63409177      -0.02074298
O       -0.67738957       3.52360431      -0.01042840
H        3.59275840       3.10592527       0.00336473
H       10.75849262       0.58721738       0.00000034
H        1.06813425      -3.24707340       0.03691150
H        2.47076837      -2.18727049       0.04049948
H       -3.25866746       0.91325605      -0.02325517
H       -3.27279418      -0.87230977      -0.03036188
24
Properties=species:S:1:pos:R:3 pbc="F F F"
C        0.60835395       1.23043421       0.00392095
C        1.29891370      -0.01283814       0.01569149
C       -0.78868068       1.26810928      -0.00572614
N        1.51560799       2.16451006       0.00536587
C        0.66666238      -1.28859241       0.01841223
N        2.58207908       0.10329072       0.02287327
C       -0.73556724      -1.24574020       0.00181946
N        1.47504672      -2.32780966       0.03266025
C       -1.48035673       0.02312839      -0.00898710
N       -1.42713479      -2.50274040      -0.00337174
N       -2.79302297       0.01771518      -0.01849908
N       -1.41413645       2.53948954      -0.01228335
O        2.63567994       1.41222948       0.01942628
O        9.99946482       0.00045592       0.00000032
O       -2.65052919      -2.54255474      -0.04862822
O       -0.76148194      -3.53652950       0.03688249
O       -2.64161101       2.62696899      -0.02026485
O       -0.68465628       3.52550727      -0.00919152
H        4.51083815       2.57915917       0.00423754
H       10.75885757       0.58700484       0.00000019
H        1.07023291      -3.24940553       0.04017883
H        2.46991027      -2.18466062       0.04062954
H       -3.25435796       0.91649998      -0.02176965
H       -3.26860676      -0.86958437      -0.03083629
24
Properties=species:S:1:pos:R:3 pbc="F F F"
C        0.62658278       1.24018526       0.00146012
C        1.30945169      -0.00330132       0.01364340
C       -0.77883860       1.26912041      -0.00669737
N        1.53012822       2.18228728       0.00069345
C        0.67114129      -1.28408974       0.01815667
N        2.57702468       0.16165994       0.01940284
C       -0.73090965      -1.24369284       0.00144775
N        1.47484454      -2.32948188       0.03347986
C       -1.47476128       0.02865720      -0.00939251
N       -1.42771536      -2.50096276      -0.00351625
N       -2.78939995       0.02037699      -0.01719787
N       -1.41382351       2.53862766      -0.01197263
O        2.66771839       1.48090820       0.01213096
O        9.99962741       0.00076735       0.00000013
O       -2.65089306      -2.53911890      -0.05669683
O       -0.76483249      -3.53542072       0.04457605
O       -2.64327307       2.61984621      -0.01978672
O       -0.69192298       3.52741023      -0.00795463
H        5.42891791       2.05239306       0.00511035
H       10.75922253       0.58679230       0.00000003
H        1.07233156      -3.25173765       0.04344617
H        2.46905217      -2.18205076       0.04075960
H       -3.25004845       0.91974391      -0.02028413
H       -3.26441933      -0.86685897      -0.03131071
24
Properties=species:S:1:pos:R:3 pbc="F F F"
C        0.65276846       1.24394363      -0.00378566
C        1.32572363      -0.00586321       0.00918515
C       -0.76479052       1.27073230      -0.00879145
N        1.56595686       2.18079200      -0.00846173
C        0.67443507      -1.28671587       0.01758536
N        2.60253918       0.16659844       0.01196002
C       -0.72385501      -1.24096469       0.00064120
N        1.47667631      -2.33707148       0.03519630
C       -1.46462169       0.03882410      -0.01025419
N       -1.42956428      -2.49824861      -0.00382807
N       -2.78259185       0.02575035      -0.01449699
N       -1.41344602       2.53729204      -0.01133767
O        2.73220700       1.48631335       0.00144415
O        9.99981370       0.00147385       0.00000007
O       -2.65169043      -2.53212281      -0.07349844
O       -0.77202651      -3.53343749       0.06058967
O       -2.64676899       2.60508004      -0.01879378
O       -0.70638128       3.53056875      -0.00537994
H        7.33423475       1.31919126       0.00255517
H       10.75983547       0.58639088       0.00000002
H        1.07653599      -3.25955634       0.05025190
H        2.47018147      -2.18463832       0.04103339
H       -3.24141667       0.92647008      -0.01719312
H       -3.25600406      -0.86144080      -0.03230528
24
Properties=species:S:1:pos:R:3 pbc="F F F"
C        0.67895413       1.24770200      -0.00903143
C        1.34199558      -0.00842511       0.00472690
C       -0.75074243       1.27234419      -0.01088553
N        1.60178550       2.17929673      -0.01761692
C        0.67772886      -1.28934200       0.01701405
N        2.62805368       0.17153695       0.00451720
C       -0.71680037      -1.23823654      -0.00016535
N        1.47850808      -2.34466108       0.03691275
C       -1.45448211       0.04899099      -0.01111588
N       -1.43141321      -2.49553446      -0.00413989
N       -2.77578376       0.03112370      -0.01179611
N       -1.41306854       2.53595642      -0.01070270
O        2.79669561       1.49171849      -0.00924265
O       10.00000000       0.00218035       0.00000000
O       -2.65248780      -2.52512671      -0.09030005
O       -0.77922052      -3.53145426       0.07660329
O       -2.65026492       2.59031387      -0.01780083
O       -0.72083959       3.53372727      -0.00280524
H        9.23955159       0.58598946       0.00000000
H       10.76044841       0.58598946       0.00000000
H        1.08074041      -3.26737502       0.05705764
H        2.47131076      -2.18722587       0.04130718
H       -3.23278489       0.93319625      -0.01410212
H       -3.24758878      -0.85602263      -0.03329985
