24
Properties=species:S:1:pos:R:3 pbc="F F F"
C        0.72650899       1.25823797       0.01632415
C        1.43949352       0.00010207      -0.02890615
C       -0.71997824       1.24655056       0.01217219
N        1.39048589       2.40779602       0.05087944
C        0.72650853      -1.25816764       0.01258485
N        9.87383622       0.00000001      -0.08382879
C       -0.71989281      -1.24659229       0.01594730
N        1.39076468      -2.40793971       0.03993413
C       -1.45263999      -0.00013067      -0.02812234
N       -1.43764859      -2.48947593       0.04496721
N       -2.77935237      -0.00029496      -0.08721366
N       -1.43801150       2.48937043       0.03545756
O        10.5128034      -1.07171886      -0.12732085
O        10.5141026       1.07163399      -0.09996334
O       -2.68290137      -2.51201414      -0.04189174
O       -0.83257523      -3.57504826       0.16324839
O       -2.68275077       2.51162948      -0.05916940
O       -0.83370091       3.57526905       0.15508124
H        0.84393817       3.26181269       0.09961834
H        2.40429860       2.36286611       0.02359686
H        0.84462785      -3.26201953       0.09137066
H        2.40417289      -2.36286845       0.00338251
H       -3.24605170       0.90087668      -0.10925515
H       -3.24612027      -0.90154481      -0.10339939
