24
Properties=species:S:1:pos:R:3 pbc="F F F"
C        0.91260917       1.24702263       0.50580721
C        1.57709513       0.03728240       0.84420880
C       -0.37194021       1.25274711      -0.05918483
N        1.77915363       2.16034098       0.85246735
C        0.96898623      -1.25663045       0.62540585
N        2.74949030       0.26041105       1.34897130
C       -0.32494825      -1.25840394       0.05179706
N        1.70085406      -2.28911125       0.98653253
C       -1.00995635      -0.01183432      -0.29696313
N       -0.95253756      -2.52482001      -0.17982654
N       -2.20873456      -0.02852171      -0.82685826
N       -0.94191148       2.51387989      -0.35310610
O        2.93103534       1.57923906       1.37735215
O        4.46175821       6.10686954       1.49615461
O       -2.06198898      -2.58922569      -0.69786284
O       -0.35016697      -3.54696221       0.15435349
O       -2.06270856       2.60242745      -0.84809386
O       -0.25883404       3.50449124      -0.08662629
H        1.74962980       3.16915802       0.78731579
H        5.31138728       6.46750085       1.75979272
H        1.32216940      -3.21602990       0.86158451
H        2.61177646      -2.12717267       1.38162720
H       -2.63271453       0.86236419      -1.04295884
H       -2.64737166      -0.91984713      -0.99600901
24
Properties=species:S:1:pos:R:3 pbc="F F F"
C        0.93034905       1.21938421       0.51648151
C        1.57291762      -0.00562465       0.84992221
C       -0.35648157       1.23785902      -0.05300417
N        1.80739275       2.11530135       0.86912321
C        0.95412616      -1.29276154       0.62469166
N        2.74581651       0.19604078       1.35951431
C       -0.33634217      -1.27722739       0.04609683
N        1.67238262      -2.33344620       0.98526237
C       -1.00561159      -0.02062874      -0.29671313
N       -0.97652661      -2.53484002      -0.19484892
N       -2.20278558      -0.02389480      -0.82743568
N       -0.92567690       2.49836129      -0.34473957
O        2.94587694       1.50678902       1.39468743
O        3.83816889       5.51189837       1.33649957
O       -2.08786394      -2.58552139      -0.71012336
O       -0.38204807      -3.56486733       0.12851806
O       -2.04665989       2.58865727      -0.84438236
O       -0.24639980       3.48774559      -0.07341801
H        1.79221992       3.15046931       0.80425380
H        4.36078071       6.27766646       1.42781364
H        1.28476512      -3.25566833       0.85185332
H        2.58331503      -2.18339661       1.38526670
H       -2.61416034       0.87530032      -1.03929759
H       -2.64948259      -0.91055369      -0.99966659
24
Properties=species:S:1:pos:R:3 pbc="F F F"
C        0.94811287       1.19177831       0.52716213
C        1.56875895      -0.04844729       0.85563372
C       -0.34102735       1.22297895      -0.04682488
N        1.83565366       2.07036634       0.88577516
C        0.93928168      -1.32885435       0.62397806
N        2.74211994       0.13179045       1.37003070
C       -0.34772112      -1.29602818       0.04040369
N        1.64394367      -2.37774022       0.98399516
C       -1.00126943      -0.02941940      -0.29646250
N       -1.00048677      -2.54484595      -0.20985413
N       -2.19685241      -0.01925261      -0.82801760
N       -0.90945375       2.48285968      -0.33637961
O        2.96068022       1.43452940       1.41198075
O        3.29549271       5.03507491       1.19103389
O       -2.11369478      -2.58180768      -0.72236349
O       -0.41389682      -3.58272793       0.10270743
O       -2.03062360       2.57490023      -0.84067295
O       -0.23396811       3.47101831      -0.06021962
H        1.83486860       3.13185878       0.82120447
H        3.33063664       5.97007842       1.08209754
H        1.24740553      -3.29522423       0.84213313
H        2.55484477      -2.23955810       1.38888519
H       -2.59559767       0.88817751      -1.03562648
H       -2.65157316      -0.90125505      -1.00331284
24
Properties=species:S:1:pos:R:3 pbc="F F F"
C        0.96815703       1.16783822       0.53858718
C        1.56507749      -0.08873020       0.86129775
C       -0.32501721       1.20862441      -0.04041374
N        1.86595990       2.03798234       0.90204434
C        0.92493435      -1.36367506       0.62333933
N        2.73837655       0.07234820       1.38005980
C       -0.35869613      -1.31422975       0.03489037
N        1.61596739      -2.42078091       0.98269170
C       -0.99677613      -0.03788461      -0.29612251
N       -1.02384566      -2.55443135      -0.22451676
N       -2.19082608      -0.01463650      -0.82850037
N       -0.89316385       2.46775491      -0.32802524
O        2.97499734       1.37049059       1.42804896
O        2.74736986       4.70970752       1.02246042
O       -2.13875619      -2.57790268      -0.73425055
O       -0.44504772      -3.59981168       0.07741182
O       -2.01471767       2.56132024      -0.83695298
O       -0.22106611       3.45454090      -0.04698470
H        1.89387250       3.12824786       0.84252369
H        2.30998272       5.48103308       0.76304009
H        1.21076990      -3.33345896       0.83257672
H        2.52661562      -2.29416243       1.39226790
H       -2.57703934       0.90059962      -1.03186308
H       -2.65331866      -0.89201087      -1.00675845
24
Properties=species:S:1:pos:R:3 pbc="F F F"
C        0.98824056       1.14403427       0.55001659
C        1.56141510      -0.12886350       0.86695263
C       -0.30901556       1.19430429      -0.03400661
N        1.89641142       2.00655470       0.91828779
C        0.91061347      -1.39842661       0.62270186
N        2.73460811       0.01311763       1.39005015
C       -0.36964842      -1.33239307       0.02938782
N        1.58804020      -2.46374722       0.98139098
C       -0.99228632      -0.04633551      -0.29578151
N       -1.04716085      -2.56399553      -0.23915297
N       -2.18481729      -0.01000893      -0.82898641
N       -0.87689484       2.45267966      -0.31968255
O        2.98918273       1.30696704       1.44400569
O        2.14297167       4.48047146       0.82078855
O       -2.16375871      -2.57399184      -0.74611033
O       -0.47614575      -3.61684145       0.05215799
O       -1.99883679       2.54776140      -0.83323844
O       -0.20817829       3.43809514      -0.03376973
H        1.95454221       3.12969337       0.86398087
H        1.34625311       4.89044703       0.47778200
H        1.17420252      -3.37158845       0.82303769
H        2.49839871      -2.34866267       1.39562809
H       -2.55848867       0.91295894      -1.02809414
H       -2.65504411      -0.88276928      -1.01019113
24
Properties=species:S:1:pos:R:3 pbc="F F F"
C        0.96118240       1.16498752       0.54460551
C        1.54778784      -0.09841159       0.86147875
C       -0.33732488       1.19787419      -0.04054299
N        1.84762743       2.05124609       0.90845683
C        0.91460141      -1.37561370       0.62031463
N        2.71935598       0.06256204       1.38559651
C       -0.36388389      -1.32419054       0.03238562
N        1.60993793      -2.43221097       0.97988439
C       -1.00480219      -0.04368107      -0.29776624
N       -1.02919903      -2.56740084      -0.23145688
N       -2.20037144      -0.03072661      -0.83255431
N       -0.91958269       2.45212085      -0.33476480
O        2.94238262       1.36279127       1.43261138
O        3.03851114       4.93315794       1.07689073
O       -2.14726064      -2.59132957      -0.73302280
O       -0.44530471      -3.61136491       0.05924578
O       -2.04548629       2.52755285      -0.84233985
O       -0.26256453       3.44577653      -0.06378274
H        2.64970516       3.78596083       1.04247785
H        2.34963169       5.49940871       0.79251357
H        1.21295047      -3.34672480       0.82696595
H        2.51862051      -2.29954503       1.39080272
H       -2.58894283       0.88382505      -1.03535026
H       -2.65738688      -0.91049758      -1.00839960
24
Properties=species:S:1:pos:R:3 pbc="F F F"
C        0.93412424       1.18594076       0.53919442
C        1.53416058      -0.06795967       0.85600487
C       -0.36563421       1.20144410      -0.04707938
N        1.79884344       2.09593749       0.89862586
C        0.91858935      -1.35280079       0.61792740
N        2.70410384       0.11200645       1.38114287
C       -0.35811935      -1.31598801       0.03538343
N        1.63183567      -2.40067473       0.97837781
C       -1.01731806      -0.04102664      -0.29975097
N       -1.01123721      -2.57080614      -0.22376080
N       -2.21592558      -0.05144430      -0.83612221
N       -0.96227055       2.45156203      -0.34984705
O        2.89558251       1.41861550       1.42121707
O        3.93405061       5.38584442       1.33299292
O       -2.13076258      -2.60866730      -0.71993528
O       -0.41446366      -3.60588837       0.06633357
O       -2.09213579       2.50734430      -0.85144126
O       -0.31695077       3.45345791      -0.09379576
H        3.34486811       4.44222829       1.22097483
H        3.35301028       6.10837038       1.10724514
H        1.25169841      -3.32186115       0.83089422
H        2.53884230      -2.25042738       1.38597734
H       -2.61939699       0.85469115      -1.04260638
H       -2.65972964      -0.93822587      -1.00660806
24
Properties=species:S:1:pos:R:3 pbc="F F F"
C        0.90738687       1.20726385       0.53389637
C        1.52067295      -0.03726903       0.85057102
C       -0.39388140       1.20504700      -0.05359235
N        1.75078005       2.14206957       0.88887098
C        0.92265200      -1.32996265       0.61557071
N        2.68886528       0.16237794       1.37661878
C       -0.35235054      -1.30773780       0.03838072
N        1.65379074      -2.36917977       0.97689662
C       -1.02993122      -0.03836205      -0.30178095
N       -0.99326253      -2.57418605      -0.21605989
N       -2.23149014      -0.07213457      -0.83969565
N       -1.00492609       2.45106291      -0.36492004
O        2.84926330       1.47770274       1.40956698
O        4.77392648       5.83427565       1.57253978
O       -2.11417053      -2.62593327      -0.70680920
O       -0.38364583      -3.60028858       0.07340929
O       -2.13859277       2.48709298      -0.86045929
O       -0.37117307       3.46101964      -0.12374983
H        4.06320894       5.14569595       1.40321843
H        4.38606377       6.66716621       1.43450338
H        1.29054587      -3.29662946       0.83485833
H        2.55876335      -2.20124307       1.38101104
H       -2.64967280       0.82532032      -1.04977703
H       -2.66190926      -0.96574740      -1.00475056
24
Properties=species:S:1:pos:R:3 pbc="F F F"
C        0.88065958       1.22859310       0.52860199
C        1.50718989      -0.00657699       0.84513884
C       -0.42212545       1.20865000      -0.06010437
N        1.70271793       2.18819617       0.87911471
C        0.92671688      -1.30712675       0.61321528
N        2.67362556       0.21276335       1.37209270
C       -0.34658233      -1.29948676       0.04137767
N        1.67574810      -2.33769169       0.97541727
C       -1.04254832      -0.03569777      -0.30381297
N       -0.97528868      -2.57756521      -0.20835934
N       -2.24705578      -0.09282217      -0.84326980
N       -1.04757929       2.45056591      -0.37999236
O        2.80295211       1.53680338       1.39791580
O        5.60998385       6.28365586       1.81099997
O       -2.09757548      -2.64319527      -0.69368231
O       -0.35283129      -3.59468404       0.08048392
O       -2.18503893       2.46684118      -0.86947335
O       -0.42539317       3.46857358      -0.15370238
H        4.78388636       5.85190904       1.58600038
H        5.42039010       7.22208873       1.76225338
H        1.32939578      -3.27138213       0.83882405
H        2.57866816      -2.15206180       1.37603826
H       -2.67993843       0.79593942      -1.05694325
H       -2.66408149      -0.99325689      -1.00289025
