24
Properties=species:S:1:pos:R:3 pbc="F F F"
C        0.75227341       1.16446275       0.53406212
C        1.42331441      -0.06061969      -0.01606771
C       -0.64880674       1.23941125       0.06934828
N        1.40048173       1.91664918       1.32680347
C        0.69271786      -1.33311288       0.06555607
N        2.63304050      -0.00595805      -0.52556927
C       -0.70252545      -1.24825716       0.06668652
N        1.39676484      -2.44808806       0.14372393
C       -1.36784698       0.05922608      -0.18128109
N       -1.47602010      -2.44477705       0.22517046
N       -2.61593132       0.06494862      -0.60648047
N       -1.27835463       2.50719563      -0.01680861
O        3.34587807      -0.93399755      -0.94409948
O        3.19030753       1.23607367      -0.62817958
O       -2.69640333      -2.41940696       0.08772080
O       -0.89831190      -3.49213647       0.50951883
O       -2.39302799       2.61414224      -0.54327297
O       -0.69301370       3.49043048       0.41968896
H        0.82248038       2.70360428       1.60017327
H        4.03242234       1.03969761      -1.06822491
H        0.89131823      -3.31671480       0.22543365
H        2.38625314      -2.38788996      -0.03913724
H       -3.03616371       0.97261983      -0.74650306
H       -3.11671719      -0.80659758      -0.61908582
24
Properties=species:S:1:pos:R:3 pbc="F F F"
C        0.72442384       1.15079384       0.28912168
C        1.40968987      -0.08845880      -0.02868441
C       -0.68035014       1.23274229       0.06233586
N        1.40271356       2.03098771       0.71874116
C        0.68606899      -1.33709203      -0.02708147
N        2.65868763      -0.02890577      -0.28400919
C       -0.69641580      -1.25176016      -0.01430739
N        1.38653504      -2.44361379      -0.03104793
C       -1.36316125       0.04449943      -0.09351126
N       -1.47544897      -2.43764297       0.03287986
N       -2.63442930       0.04982537      -0.29710320
N       -1.29419380       2.49487743       0.05676974
O        3.40634767      -0.95777867      -0.52649639
O        3.23802399       1.19292025      -0.29504149
O       -2.69649720      -2.44676907      -0.01616549
O       -0.89398782      -3.49284210       0.12400353
O       -2.45812531       2.59427606      -0.19752517
O       -0.73990322       3.54044528       0.30199758
H        0.87122029       2.85194303       0.88451943
H        4.12243823       0.98826455      -0.52401759
H        0.88765011      -3.31434094      -0.01947322
H        2.38235239      -2.40907249      -0.12614398
H       -3.06097141       0.95577173      -0.33674236
H       -3.13881952      -0.81387426      -0.32214330
24
Properties=species:S:1:pos:R:3 pbc="F F F"
C        0.69657426       1.13712492       0.04418125
C        1.39606533      -0.11629790      -0.04130112
C       -0.71189353       1.22607332       0.05532343
N        1.40494540       2.14532623       0.11067885
C        0.67942013      -1.34107118      -0.11971902
N        2.68433476      -0.05185349      -0.04244912
C       -0.69030615      -1.25526316      -0.09530131
N        1.37630525      -2.43913953      -0.20581980
C       -1.35847552       0.02977279      -0.00574143
N       -1.47487785      -2.43050889      -0.15941073
N       -2.65292727       0.03470213       0.01227408
N       -1.31003296       2.48255924       0.13034810
O        3.46681727      -0.98155979      -0.10889330
O        3.28574045       1.14976684       0.03809659
O       -2.69659107      -2.47413117      -0.12005179
O       -0.88966375      -3.49354772      -0.26151177
O       -2.52322263       2.57440988       0.14822264
O       -0.78679274       3.59046009       0.18430620
H        0.91996020       3.00028178       0.16886559
H        4.21245413       0.93683149       0.02018973
H        0.88398200      -3.31196708      -0.26438009
H        2.37845164      -2.43025501      -0.21315072
H       -3.08577912       0.93892363       0.07301833
H       -3.16092184      -0.82115094      -0.02520077
24
Properties=species:S:1:pos:R:3 pbc="F F F"
C        0.71984109       1.18361697      -0.19653494
C        1.40840056      -0.08566803      -0.05012652
C       -0.68305293       1.23294869       0.04953661
N        1.39677635       2.11325608      -0.50750911
C        0.68542838      -1.32411578      -0.21097176
N        2.65929719      -0.05927901       0.20028332
C       -0.69625649      -1.24240538      -0.17515075
N        1.38707349      -2.41729821      -0.37939459
C       -1.36069060       0.03130854       0.08312635
N       -1.47550579      -2.41616125      -0.35166560
N       -2.62570831       0.00641919       0.32039591
N       -1.30071933       2.48344293       0.20548476
O        3.40942266      -1.01151037       0.30829205
O        3.23831229       1.15025983       0.37426161
O       -2.69037408      -2.44748105      -0.22161826
O       -0.89930367      -3.43750335      -0.64189824
O       -2.45964696       2.54797177       0.49243777
O       -0.75538462       3.55308359       0.06326516
H        0.86499932       2.94866390      -0.56156405
H        4.12413676       0.91674325       0.56703055
H        0.89056245      -3.27982912      -0.50716451
H        2.38406414      -2.39295962      -0.29568727
H       -3.05245754       0.89889157       0.48044810
H       -3.12592942      -0.85861727       0.26899735
24
Properties=species:S:1:pos:R:3 pbc="F F F"
C        0.74310792       1.23010902      -0.43725113
C        1.42073579      -0.05503815      -0.05895192
C       -0.65421233       1.23982406       0.04374979
N        1.38860731       2.08118592      -1.12569708
C        0.69143664      -1.30716039      -0.30222450
N        2.63425961      -0.06670453       0.44301576
C       -0.70220683      -1.22954760      -0.25500020
N        1.39784173      -2.39545689      -0.55296938
C       -1.36290569       0.03284429       0.17199413
N       -1.47613372      -2.40181360      -0.54392047
N       -2.59848935      -0.02186375       0.62851775
N       -1.29140571       2.48432663       0.28062143
O        3.35202805      -1.04146095       0.72547739
O        3.19088412       1.15075282       0.71042664
O       -2.68415708      -2.42083094      -0.32318473
O       -0.90894360      -3.38145899      -1.02228471
O       -2.39607130       2.52153366       0.83665290
O       -0.72397649       3.51570710      -0.05777588
H        0.81003844       2.89704603      -1.29199370
H        4.03581939       0.89665500       1.11387138
H        0.89714290      -3.24769117      -0.74994894
H        2.38967664      -2.35566422      -0.37822383
H       -3.01913596       0.85885952       0.88787787
H       -3.09093700      -0.89608360       0.56319548
24
Properties=species:S:1:pos:R:3 pbc="F F F"
C        0.71577704       1.26109960      -0.47798405
C        1.32930796      -0.02435348      -0.10912029
C       -0.67262617       1.25325265       0.00900588
N        1.37100223       2.09632284      -1.17007240
C        0.69429270      -1.29961836      -0.29899735
N        2.55956529      -0.00040153       0.36185515
C       -0.69256103      -1.22381242      -0.22463990
N        1.41521027      -2.36910333      -0.56055209
C       -1.36152026       0.04025741       0.17652152
N       -1.45130560      -2.40962752      -0.47472504
N       -2.59061633      -0.01632942       0.64693472
N       -1.32300545       2.49392537       0.21520755
O        3.59392769      -0.62150068       0.07082385
O        3.09735203       0.76637757       1.31856583
O       -2.65871109      -2.43183438      -0.25825982
O       -0.87401847      -3.40158478      -0.91508193
O       -2.42268991       2.53372433       0.77865594
O       -0.77045005       3.52033375      -0.15919419
H        0.79146719       2.90788621      -1.35032745
H        4.05530455       0.58348882       1.40925543
H        0.92301591      -3.23068215      -0.73162963
H        2.41042240      -2.32686289      -0.43951944
H       -3.02057496       0.86595470       0.88432948
H       -3.07535619      -0.89575446       0.60358171
24
Properties=species:S:1:pos:R:3 pbc="F F F"
C        0.69378202       1.28808132      -0.51560116
C        1.30283226       0.00714707      -0.13354915
C       -0.68942923       1.26590578      -0.02538286
N        1.35378563       2.11051968      -1.21336249
C        0.70392573      -1.28685298      -0.29369828
N        2.63970659       0.08902506       0.35494176
C       -0.68092230      -1.21766213      -0.19419461
N        1.43755443      -2.34020983      -0.56663012
C       -1.35891195       0.04788125       0.18104240
N       -1.42551159      -2.41710846      -0.40566229
N       -2.58250549      -0.01066790       0.66525520
N       -1.35382573       2.50316064       0.14983801
O        3.65292149       0.07213209      -0.35145323
O        3.01847021       0.12997056       1.67012007
O       -2.63288094      -2.44257459      -0.19342860
O       -0.83820078      -3.42043865      -0.80757667
O       -2.44894670       2.54541007       0.72068180
O       -0.81672030       3.52393241      -0.26020414
H        0.77331130       2.91790883      -1.40807620
H        3.98903128       0.20631576       1.61513002
H        0.95048753      -3.21080491      -0.71266452
H        2.43615756      -2.28471437      -0.49667559
H       -3.02143778       0.87280517       0.88059708
H       -3.05925758      -0.89488444       0.64384891
24
Properties=species:S:1:pos:R:3 pbc="F F F"
C        0.68283157       1.30006383      -0.57569425
C        1.41211287       0.08067120      -0.11483684
C       -0.71012245       1.28511343      -0.09421422
N        1.32765612       2.12506562      -1.29400738
C        0.75431769      -1.21453255      -0.27435222
N        2.57606128       0.23329142       0.48204106
C       -0.63892384      -1.19989620      -0.13178299
N        1.48271648      -2.27556666      -0.58049446
C       -1.34355431       0.06414967       0.19084126
N       -1.36602018      -2.42707149      -0.26508377
N       -2.56068559       0.00214531       0.70113163
N       -1.41202756       2.51647170       0.01666671
O        3.18125849       1.25480934       0.73830448
O        3.21870842      -0.93847179       0.90941592
O       -2.57554551      -2.46163240      -0.06183767
O       -0.75719004      -3.44826906      -0.58659749
O       -2.49940903       2.56426822       0.60231848
O       -0.91027890       3.52328768      -0.46420474
H        0.74370052       2.92397307      -1.52067225
H        3.99356712      -0.53132689       1.32443654
H        1.00597003      -3.16029561      -0.67384516
H        2.47906251      -2.19254659      -0.62362623
H       -3.01839170       0.88618632       0.87180878
H       -3.02198092      -0.88983005       0.72486755
24
Properties=species:S:1:pos:R:3 pbc="F F F"
C        0.70507736       1.27464316      -0.52207657
C        1.41443421       0.03110658      -0.09637179
C       -0.69050591       1.26512331      -0.04784294
N        1.36564457       2.11145982      -1.21192207
C        0.73834240      -1.24817564      -0.30135541
N        2.58121174       0.14867067       0.50328925
C       -0.65554733      -1.21768205      -0.16742687
N        1.45365909      -2.30961048      -0.63558298
C       -1.34289808       0.04487513       0.19538016
N       -1.40001619      -2.42833658      -0.34807328
N       -2.56216256      -0.01645783       0.70042968
N       -1.37421486       2.50269785       0.09972422
O        3.20119052       1.15320359       0.78964143
O        3.20835844      -1.04477610       0.89266232
O       -2.60867908      -2.45566882      -0.13824406
O       -0.80668036      -3.44250209      -0.71713113
O       -2.46897133       2.54702365       0.67197714
O       -0.84993583       3.51823946      -0.33683747
H        0.79527143       2.92558395      -1.41743000
H        3.99062092      -0.66197133       1.31689302
H        0.96547245      -3.18330989      -0.76496625
H        2.45144226      -2.23954720      -0.66612544
H       -3.00846109       0.86777840       0.89810662
H       -3.03496279      -0.90277611       0.69714710
