24
Properties=species:S:1:pos:R:3 pbc="F F F"
C        0.81856078       1.20909764       0.54306076
C        1.48932833       0.01494476       0.90849540
C       -0.46113717       1.19821475      -0.04768643
N        1.65745783       2.14293271       0.89651430
C        0.92740648      -1.29307907       0.64132960
N        2.66239665       0.26322712       1.39277060
C       -0.37615876      -1.31008064       0.06552333
N        1.67664536      -2.31845498       0.95342602
C       -1.07844887      -0.07623370      -0.28188753
N       -0.96463463      -2.57833062      -0.20399059
N       -2.27322513      -0.11105180      -0.81977933
N       -1.01835149       2.43895950      -0.40193868
O        2.83826110       1.58085762       1.38634625
O        5.52870962       6.34194556       1.79213457
O       -2.07660272      -2.66395158      -0.72277591
O       -0.33600985      -3.59664951       0.10395000
O       -2.13510736       2.51541053      -0.91803595
O       -0.33128807       3.43928061      -0.16654892
H        1.65084669       3.13532861       0.69857527
H        5.52870962       7.30346984       1.79213457
H        1.30729936      -3.24619266       0.77740965
H        2.60618674      -2.15931125       1.30811965
H       -2.69857214       0.77597365      -1.05080617
H       -2.69014052      -1.01113197      -1.00045960
